2015CitenelArticle/DVLU14.m
function mpc = DVLU14

%% MATPOWER Case Format : Version 2
mpc.version = '2';

%%-----  Power Flow Data  -----%%
%% system MVA base
mpc.baseMVA = 1;

%% bus data
%	bus_i	type	Pd	Qd	Gs	Bs	area	Vm	Va	baseKV	zone	Vmax	Vmin
mpc.bus = [
	100343595	1	0	0	0	0	0	1	0	13.8	0	1.1	0.9;
	100343658	1	0	0	0	0	0	1	0	13.8	0	1.1	0.9;
	100343700	1	0	0	0	0	0	1	0	13.8	0	1.1	0.9;
	100343721	1	0	0	0	0	0	1	0	13.8	0	1.1	0.9;
	100343728	1	0	0	0	0	0	1	0	13.8	0	1.1	0.9;
	100343735	1	0	0	0	0	0	1	0	13.8	0	1.1	0.9;
	100343742	1	0	0	0	0	0	1	0	13.8	0	1.1	0.9;
	100343749	1	-0.00440857573	0.000783293919	0	0	0	1	0	13.8	0	1.1	0.9;
	100343756	1	0	0	0	0	0	1	0	13.8	0	1.1	0.9;
	100343763	1	-0.00618129549	0.00124222762	0	0	0	1	0	13.8	0	1.1	0.9;
	100343770	1	-0.0082071608	0.00157364836	0	0	0	1	0	13.8	0	1.1	0.9;
	100343777	1	-0.00864366555	0.00175086737	0	0	0	1	0	13.8	0	1.1	0.9;
	100343784	1	0	0	0	0	0	1	0	13.8	0	1.1	0.9;
	100343791	1	0	0	0	0	0	1	0	13.8	0	1.1	0.9;
	100343798	1	0	0	0	0	0	1	0	13.8	0	1.1	0.9;
	100343805	1	0	0	0	0	0	1	0	13.8	0	1.1	0.9;
	100343812	1	0	0	0	0	0	1	0	13.8	0	1.1	0.9;
	100343819	1	0	0	0	0	0	1	0	13.8	0	1.1	0.9;
	100343826	1	0	0	0	0	0	1	0	13.8	0	1.1	0.9;
	100343833	1	0	0	0	0	0	1	0	13.8	0	1.1	0.9;
	100343840	1	0	0	0	0	0	1	0	13.8	0	1.1	0.9;
	100343847	1	-8.48522247e-07	2.82420739e-07	0	0	0	1	0	13.8	0	1.1	0.9;
	100343854	1	0	0	0	0	0	1	0	13.8	0	1.1	0.9;
	100343861	1	0	0	0	0	0	1	0	13.8	0	1.1	0.9;
	100343868	1	0	0	0	0	0	1	0	13.8	0	1.1	0.9;
	100343889	1	0	0	0	0	0	1	0	13.8	0	1.1	0.9;
	100343896	1	0	0	0	0	0	1	0	13.8	0	1.1	0.9;
	100343903	1	0	0	0	0	0	1	0	13.8	0	1.1	0.9;
	100343910	1	0	0	0	0	0	1	0	13.8	0	1.1	0.9;
	100343917	1	0	0	0	0	0	1	0	13.8	0	1.1	0.9;
	100343924	1	0	0	0	0	0	1	0	13.8	0	1.1	0.9;
	100343931	1	-0.00451967219	0.000697579225	0	0	0	1	0	13.8	0	1.1	0.9;
	100343938	1	0	0	0	0	0	1	0	13.8	0	1.1	0.9;
	100343945	1	0	0	0	0	0	1	0	13.8	0	1.1	0.9;
	100343952	1	0	0	0	0	0	1	0	13.8	0	1.1	0.9;
	100343959	1	0	0	0	0	0	1	0	13.8	0	1.1	0.9;
	100343966	1	0	0	0	0	0	1	0	13.8	0	1.1	0.9;
	100343973	1	0	0	0	0	0	1	0	13.8	0	1.1	0.9;
	100343980	1	0	0	0	0	0	1	0	13.8	0	1.1	0.9;
	100343987	1	-0.00209691983	0.000294564831	0	0	0	1	0	13.8	0	1.1	0.9;
	100343994	1	0	0	0	0	0	1	0	13.8	0	1.1	0.9;
	100344001	1	0	0	0	0	0	1	0	13.8	0	1.1	0.9;
	100344008	1	-0.00407233495	0.000851216107	0	0	0	1	0	13.8	0	1.1	0.9;
	100344015	1	0	0	0	0	0	1	0	13.8	0	1.1	0.9;
	100344022	1	0	0	0	0	0	1	0	13.8	0	1.1	0.9;
	100344029	1	0	0	0	0	0	1	0	13.8	0	1.1	0.9;
	100344036	1	0	0	0	0	0	1	0	13.8	0	1.1	0.9;
	100344043	1	-0.000908933341	0	0	0	0	1	0	13.8	0	1.1	0.9;
	100344050	1	0	0	0	0	0	1	0	13.8	0	1.1	0.9;
	100344057	1	0	0	0	0	0	1	0	13.8	0	1.1	0.9;
	100344064	1	0	0	0	0	0	1	0	13.8	0	1.1	0.9;
	100344071	1	0	0	0	0	0	1	0	13.8	0	1.1	0.9;
	100344078	1	0.646385339	0.0895763682	0	0	0	1	0	13.8	0	1.1	0.9;
	100344085	1	0	0	0	0	0	1	0	13.8	0	1.1	0.9;
	100344092	1	0.0326411082	0.00428512965	0	0	0	1	0	13.8	0	1.1	0.9;
	100344099	1	0	0	0	0	0	1	0	13.8	0	1.1	0.9;
	100344106	1	0.105922068	0.0140886454	0	0	0	1	0	13.8	0	1.1	0.9;
	100344113	1	0	0	0	0	0	1	0	13.8	0	1.1	0.9;
	100344120	1	0	0	0	0	0	1	0	13.8	0	1.1	0.9;
	100344127	1	0.0846543098	0.0107792507	0	0	0	1	0	13.8	0	1.1	0.9;
	100344134	1	0	0	0	0	0	1	0	13.8	0	1.1	0.9;
	100344141	1	-8.48522247e-06	2.82420739e-06	0	0	0	1	0	13.8	0	1.1	0.9;
	100344148	1	0	0	0	0	0	1	0	13.8	0	1.1	0.9;
	100344155	1	0.0804396668	0.0113163688	0	0	0	1	0	13.8	0	1.1	0.9;
	100344162	1	0	0	0	0	0	1	0	13.8	0	1.1	0.9;
	100344169	1	0.0909313358	0.0108542074	0	0	0	1	0	13.8	0	1.1	0.9;
	100344176	1	0	0	0	0	0	1	0	13.8	0	1.1	0.9;
	100344183	1	0.0591235096	0.0071574063	0	0	0	1	0	13.8	0	1.1	0.9;
	100356713	1	0	0	0	0	0	1	0	13.8	0	1.1	0.9;
	100356776	1	0	0	0	0	0	1	0	13.8	0	1.1	0.9;
	100356783	1	0	0	0	0	0	1	0	13.8	0	1.1	0.9;
	100356790	1	0	0	0	0	0	1	0	13.8	0	1.1	0.9;
	100356797	1	-0.0123700156	0.00364661658	0	0	0	1	0	13.8	0	1.1	0.9;
	100356804	1	0	0	0	0	0	1	0	13.8	0	1.1	0.9;
	100356811	1	0	0	0	0	0	1	0	13.8	0	1.1	0.9;
	100356818	1	0	0	0	0	0	1	0	13.8	0	1.1	0.9;
	100356825	1	0	0	0	0	0	1	0	13.8	0	1.1	0.9;
	100356832	1	-0.00537553139	0.00114210947	0	0	0	1	0	13.8	0	1.1	0.9;
	100356839	1	0	0	0	0	0	1	0	13.8	0	1.1	0.9;
	100356846	1	-0.00300221928	0.000730340031	0	0	0	1	0	13.8	0	1.1	0.9;
	100356853	1	-0.00142234464	7.00403432e-05	0	0	0	1	0	13.8	0	1.1	0.9;
	100356860	1	0	0	0	0	0	1	0	13.8	0	1.1	0.9;
	100356867	1	0	0	0	0	0	1	0	13.8	0	1.1	0.9;
	100356874	1	0	0	0	0	0	1	0	13.8	0	1.1	0.9;
	100356881	1	0	0	0	0	0	1	0	13.8	0	1.1	0.9;
	100356965	1	0	0	0	0	0	1	0	13.8	0	1.1	0.9;
	100357056	1	0	0	0	0	0	1	0	13.8	0	1.1	0.9;
	100357084	1	0	0	0	0	0	1	0	13.8	0	1.1	0.9;
	100357175	1	0	0	0	0	0	1	0	13.8	0	1.1	0.9;
	100357217	1	0	0	0	0	0	1	0	13.8	0	1.1	0.9;
	100357224	1	0	0	0	0	0	1	0	13.8	0	1.1	0.9;
	100357238	1	0	0	0	0	0	1	0	13.8	0	1.1	0.9;
	100357245	1	0	0	0	0	0	1	0	13.8	0	1.1	0.9;
	100357252	1	-0.00463876967	0.00095571178	0	0	0	1	0	13.8	0	1.1	0.9;
	100357259	1	-0.0133413522	0.00360015837	0	0	0	1	0	13.8	0	1.1	0.9;
	100357266	1	0	0	0	0	0	1	0	13.8	0	1.1	0.9;
	100357273	1	-0.00527624968	0.00150403165	0	0	0	1	0	13.8	0	1.1	0.9;
	100357280	1	-0.00738340711	0.00170116132	0	0	0	1	0	13.8	0	1.1	0.9;
	100357287	1	0	0	0	0	0	1	0	13.8	0	1.1	0.9;
	100357294	1	-0.010638154	0.00312060795	0	0	0	1	0	13.8	0	1.1	0.9;
	100357301	1	-0.00359410044	0.00086011236	0	0	0	1	0	13.8	0	1.1	0.9;
	100357308	1	-0.00171797163	0.000319700276	0	0	0	1	0	13.8	0	1.1	0.9;
	100357315	1	-0.00342609303	0.000804193054	0	0	0	1	0	13.8	0	1.1	0.9;
	100357322	1	0	0	0	0	0	1	0	13.8	0	1.1	0.9;
	100357329	1	-0.00657279167	0.00193557053	0	0	0	1	0	13.8	0	1.1	0.9;
	100357336	1	-0.00838075278	0.00220118724	0	0	0	1	0	13.8	0	1.1	0.9;
	100357343	1	0	0	0	0	0	1	0	13.8	0	1.1	0.9;
	100357350	1	-0.00567637403	0.00155317285	0	0	0	1	0	13.8	0	1.1	0.9;
	100357357	1	-0.00716425779	0.00204839762	0	0	0	1	0	13.8	0	1.1	0.9;
	100357364	1	0	0	0	0	0	1	0	13.8	0	1.1	0.9;
	100357371	1	0	0	0	0	0	1	0	13.8	0	1.1	0.9;
	100357378	1	0	0	0	0	0	1	0	13.8	0	1.1	0.9;
	100357385	1	-0.0117553719	0.00324035435	0	0	0	1	0	13.8	0	1.1	0.9;
	100357392	1	0	0	0	0	0	1	0	13.8	0	1.1	0.9;
	100357462	1	0	0	0	0	0	1	0	13.8	0	1.1	0.9;
	100357469	1	0	0	0	0	0	1	0	13.8	0	1.1	0.9;
	100357476	1	0	0	0	0	0	1	0	13.8	0	1.1	0.9;
	100357518	1	0	0	0	0	0	1	0	13.8	0	1.1	0.9;
	100357553	1	0	0	0	0	0	1	0	13.8	0	1.1	0.9;
	100357574	1	0	0	0	0	0	1	0	13.8	0	1.1	0.9;
	100357686	1	0	0	0	0	0	1	0	13.8	0	1.1	0.9;
	100357693	1	0	0	0	0	0	1	0	13.8	0	1.1	0.9;
	100357700	1	0	0	0	0	0	1	0	13.8	0	1.1	0.9;
	100357707	1	-0.0134739061	0.00330813533	0	0	0	1	0	13.8	0	1.1	0.9;
	100357714	1	-0.00919391378	0.00196762529	0	0	0	1	0	13.8	0	1.1	0.9;
	100357721	1	0	0	0	0	0	1	0	13.8	0	1.1	0.9;
	100357728	1	-0.00474794312	0.000739942336	0	0	0	1	0	13.8	0	1.1	0.9;
	100357735	1	0	0	0	0	0	1	0	13.8	0	1.1	0.9;
	100357742	1	-0.0088444748	0.00226981548	0	0	0	1	0	13.8	0	1.1	0.9;
	100357749	1	-0.00369872692	0.00104283858	0	0	0	1	0	13.8	0	1.1	0.9;
	100357763	1	0	0	0	0	0	1	0	13.8	0	1.1	0.9;
	100357805	1	0	0	0	0	0	1	0	13.8	0	1.1	0.9;
	100357812	1	0.128202411	0.0248521034	0	0	0	1	0	13.8	0	1.1	0.9;
	100357833	1	0	0	0	0	0	1	0	13.8	0	1.1	0.9;
	100357840	1	0	0	0	0	0	1	0	13.8	0	1.1	0.9;
	100357847	1	0	0	0	0	0	1	0	13.8	0	1.1	0.9;
	100357854	1	0	0	0	0	0	1	0	13.8	0	1.1	0.9;
	100357861	1	-0.00512610735	0.001370023	0	0	0	1	0	13.8	0	1.1	0.9;
	100357868	1	0	0	0	0	0	1	0	13.8	0	1.1	0.9;
	100357875	1	0	0	0	0	0	1	0	13.8	0	1.1	0.9;
	100357882	1	0	0	0	0	0	1	0	13.8	0	1.1	0.9;
	100357889	1	0	0	0	0	0	1	0	13.8	0	1.1	0.9;
	100357896	1	-0.00534237446	0.000475596524	0	0	0	1	0	13.8	0	1.1	0.9;
	100357903	1	-0.00530211116	0	0	0	0	1	0	13.8	0	1.1	0.9;
	100357910	1	0	0	0	0	0	1	0	13.8	0	1.1	0.9;
	100357917	1	0	0	0	0	0	1	0	13.8	0	1.1	0.9;
	100357924	1	-0.00842227503	0.00231585006	0	0	0	1	0	13.8	0	1.1	0.9;
	100357931	1	0	0	0	0	0	1	0	13.8	0	1.1	0.9;
	100357938	1	0	0	0	0	0	1	0	13.8	0	1.1	0.9;
	100357945	1	-0.00467677793	0.00128769736	0	0	0	1	0	13.8	0	1.1	0.9;
	100357952	1	-0.00735286031	0.00169099417	0	0	0	1	0	13.8	0	1.1	0.9;
	100357959	1	0	0	0	0	0	1	0	13.8	0	1.1	0.9;
	100357966	1	-0.00155494469	0.000467123902	0	0	0	1	0	13.8	0	1.1	0.9;
	100357973	1	-0.0044011281	0.000977458177	0	0	0	1	0	13.8	0	1.1	0.9;
	100357980	1	0	0	0	0	0	1	0	13.8	0	1.1	0.9;
	100357987	1	-0.0110824199	0.00315082697	0	0	0	1	0	13.8	0	1.1	0.9;
	100357994	1	0	0	0	0	0	1	0	13.8	0	1.1	0.9;
	100358001	1	0.0945348997	0.0178787318	0	0	0	1	0	13.8	0	1.1	0.9;
	106889603	1	0	0	0	0	0	1	0	13.8	0	1.1	0.9;
	108484042	1	0	0	0	0	0	1	0	13.8	0	1.1	0.9;
	108484049	1	0	0	0	0	0	1	0	13.8	0	1.1	0.9;
	108490580	1	0	0	0	0	0	1	0	13.8	0	1.1	0.9;
	108490587	1	0	0	0	0	0	1	0	13.8	0	1.1	0.9;
	108490594	1	-0.00454547834	0.000840625329	0	0	0	1	0	13.8	0	1.1	0.9;
	108490601	1	-0.0117449037	0.00298476358	0	0	0	1	0	13.8	0	1.1	0.9;
	109518005	1	0	0	0	0	0	1	0	13.8	0	1.1	0.9;
	109523563	1	0	0	0	0	0	1	0	13.8	0	1.1	0.9;
	109523570	1	0	0	0	0	0	1	0	13.8	0	1.1	0.9;
	109523577	1	0.0344446918	0.0049833429	0	0	0	1	0	13.8	0	1.1	0.9;
	109524977	1	0	0	0	0	0	1	0	13.8	0	1.1	0.9;
	109524984	1	-0.00464916868	0.000641518708	0	0	0	1	0	13.8	0	1.1	0.9;
	109528519	1	0	0	0	0	0	1	0	13.8	0	1.1	0.9;
	109528526	1	0	0	0	0	0	1	0	13.8	0	1.1	0.9;
	109528533	1	0	0	0	0	0	1	0	13.8	0	1.1	0.9;
	109528540	1	0	0	0	0	0	1	0	13.8	0	1.1	0.9;
	109528547	1	-0.00325125133	0.000830034552	0	0	0	1	0	13.8	0	1.1	0.9;
	109528554	1	-0.0106509187	0.00290300278	0	0	0	1	0	13.8	0	1.1	0.9;
	109528561	1	-0.00370398407	0.000896685846	0	0	0	1	0	13.8	0	1.1	0.9;
	109528568	1	-0.00516103972	0.00150770311	0	0	0	1	0	13.8	0	1.1	0.9;
	109528575	1	-0.00884173555	0.00231260222	0	0	0	1	0	13.8	0	1.1	0.9;
	109528582	1	-0.00472075352	0.00157124778	0	0	0	1	0	13.8	0	1.1	0.9;
	109528589	1	0	0	0	0	0	1	0	13.8	0	1.1	0.9;
	113510350	1	0	0	0	0	0	1	0	13.8	0	1.1	0.9;
	113510357	1	0	0	0	0	0	1	0	13.8	0	1.1	0.9;
	113510364	1	-0.00810422676	0.00194107774	0	0	0	1	0	13.8	0	1.1	0.9;
	113510371	1	-0.00533387079	0.00127950716	0	0	0	1	0	13.8	0	1.1	0.9;
	113510378	1	-0.000463237808	0.000100400573	0	0	0	1	0	13.8	0	1.1	0.9;
	117730251	1	0	0	0	0	0	1	0	13.8	0	1.1	0.9;
	117730258	1	0	0	0	0	0	1	0	13.8	0	1.1	0.9;
	117730265	1	-0.0140066858	0.00365353589	0	0	0	1	0	13.8	0	1.1	0.9;
	117730272	1	-0.00433122647	0.000769314093	0	0	0	1	0	13.8	0	1.1	0.9;
	117730279	1	0	0	0	0	0	1	0	13.8	0	1.1	0.9;
	120069896	1	0	0	0	0	0	1	0	13.8	0	1.1	0.9;
	120069903	1	0	0	0	0	0	1	0	13.8	0	1.1	0.9;
	120069910	1	-0.00899845391	0.00206223624	0	0	0	1	0	13.8	0	1.1	0.9;
	120069917	1	0	0	0	0	0	1	0	13.8	0	1.1	0.9;
	120069924	1	-0.00306131147	0.000686141185	0	0	0	1	0	13.8	0	1.1	0.9;
	120069931	1	-0.00658871991	0.00152069447	0	0	0	1	0	13.8	0	1.1	0.9;
	120069938	1	-0.00819488951	0.00174267717	0	0	0	1	0	13.8	0	1.1	0.9;
	120069945	1	0	0	0	0	0	1	0	13.8	0	1.1	0.9;
	120069952	1	0	0	0	0	0	1	0	13.8	0	1.1	0.9;
	120069959	1	0	0	0	0	0	1	0	13.8	0	1.1	0.9;
	120069966	1	-0.00310507032	0.00066877231	0	0	0	1	0	13.8	0	1.1	0.9;
	120069973	1	-0.00317733306	0.000595342918	0	0	0	1	0	13.8	0	1.1	0.9;
	120069980	1	-0.0101337582	0.00185522183	0	0	0	1	0	13.8	0	1.1	0.9;
	134959568	1	0	0	0	0	0	1	0	13.8	0	1.1	0.9;
	134959575	1	-0.0029504502	0.0007299164	0	0	0	1	0	13.8	0	1.1	0.9;
	134959582	1	0	0	0	0	0	1	0	13.8	0	1.1	0.9;
	134959589	1	0	0	0	0	0	1	0	13.8	0	1.1	0.9;
	134959596	1	-0.0149910039	0.00291726502	0	0	0	1	0	13.8	0	1.1	0.9;
	134959603	1	-0.0015227654	0.000338763676	0	0	0	1	0	13.8	0	1.1	0.9;
	134959610	1	0	0	0	0	0	1	0	13.8	0	1.1	0.9;
	134959617	1	-0.00891119908	0.00215924776	0	0	0	1	0	13.8	0	1.1	0.9;
	134959624	1	0	0	0	0	0	1	0	13.8	0	1.1	0.9;
	134959631	1	0	0	0	0	0	1	0	13.8	0	1.1	0.9;
	134959638	1	0	0	0	0	0	1	0	13.8	0	1.1	0.9;
	134959645	1	-0.00377806375	0.000450743499	0	0	0	1	0	13.8	0	1.1	0.9;
	134959652	1	-0.0098565082	0.00314616703	0	0	0	1	0	13.8	0	1.1	0.9;
	139030124	1	0	0	0	0	0	1	0	13.8	0	1.1	0.9;
	139030334	1	0	0	0	0	0	1	0	13.8	0	1.1	0.9;
	139030341	1	-0.00423624732	0.00140998554	0	0	0	1	0	13.8	0	1.1	0.9;
	139030348	1	-0.00281690017	0.000517394794	0	0	0	1	0	13.8	0	1.1	0.9;
	139030355	1	0	0	0	0	0	1	0	13.8	0	1.1	0.9;
	139030362	1	-0.00834870262	0.00261069731	0	0	0	1	0	13.8	0	1.1	0.9;
	139030369	1	0	0	0	0	0	1	0	13.8	0	1.1	0.9;
	139030376	1	-0.00354936856	0.00118136595	0	0	0	1	0	13.8	0	1.1	0.9;
	139030383	1	-0.00844169881	0.0017172593	0	0	0	1	0	13.8	0	1.1	0.9;
	139030390	1	0	0	0	0	0	1	0	13.8	0	1.1	0.9;
	139030999	1	0	0	0	0	0	1	0	13.8	0	1.1	0.9;
	139031006	1	0.0271489653	0.00394893368	0	0	0	1	0	13.8	0	1.1	0.9;
	148364035	1	0	0	0	0	0	1	0	13.8	0	1.1	0.9;
	148371236	1	0	0	0	0	0	1	0	13.8	0	1.1	0.9;
	148371237	1	0	0	0	0	0	1	0	13.8	0	1.1	0.9;
	148371238	1	0	0	0	0	0	1	0	13.8	0	1.1	0.9;
	148371239	1	0	0	0	0	0	1	0	13.8	0	1.1	0.9;
	148371240	1	0	0	0	0	0	1	0	13.8	0	1.1	0.9;
	148371241	1	0	0	0	0	0	1	0	13.8	0	1.1	0.9;
	148371242	1	0	0	0	0	0	1	0	13.8	0	1.1	0.9;
	148371280	1	0	0	0	0	0	1	0	13.8	0	1.1	0.9;
	148371440	3	0	0	0	0	0	1	0	13.8	0	1.1	0.9;
	148617979	1	0	0	0	0	0	1	0	13.8	0	1.1	0.9;
	148617980	1	-0.00425378037	0.00116371465	0	0	0	1	0	13.8	0	1.1	0.9;
	148617981	1	-0.0129908664	0.00356753877	0	0	0	1	0	13.8	0	1.1	0.9;
	148617982	1	-0.009256852	0.00249278665	0	0	0	1	0	13.8	0	1.1	0.9;
	148617983	1	0	0	0	0	0	1	0	13.8	0	1.1	0.9;
	148617984	1	-0.00809098243	0.00210474056	0	0	0	1	0	13.8	0	1.1	0.9;
	148617985	1	-0.00326053896	0.00091716135	0	0	0	1	0	13.8	0	1.1	0.9;
	149142614	1	0	0	0	0	0	1	0	13.8	0	1.1	0.9;
	149142615	1	0	0	0	0	0	1	0	13.8	0	1.1	0.9;
	149142616	1	-0.00680307323	0.0021802881	0	0	0	1	0	13.8	0	1.1	0.9;
	149142617	1	-0.00763196879	0.0018847348	0	0	0	1	0	13.8	0	1.1	0.9;
	149142618	1	0	0	0	0	0	1	0	13.8	0	1.1	0.9;
	149142619	1	-0.00245668403	0.000431115258	0	0	0	1	0	13.8	0	1.1	0.9;
	149414082	1	0	0	0	0	0	1	0	13.8	0	1.1	0.9;
	149414083	1	0	0	0	0	0	1	0	13.8	0	1.1	0.9;
	149414084	1	0	0	0	0	0	1	0	13.8	0	1.1	0.9;
	149414085	1	-0.00798953791	0.00215501145	0	0	0	1	0	13.8	0	1.1	0.9;
	149414086	1	-0.00733720876	0.00160174922	0	0	0	1	0	13.8	0	1.1	0.9;
	149414087	1	0	0	0	0	0	1	0	13.8	0	1.1	0.9;
	149414088	1	-0.0142927762	0.00349665117	0	0	0	1	0	13.8	0	1.1	0.9;
	149414089	1	0	0	0	0	0	1	0	13.8	0	1.1	0.9;
	149415559	1	0	0	0	0	0	1	0	13.8	0	1.1	0.9;
	149415560	1	-0.00165928525	0.000552273755	0	0	0	1	0	13.8	0	1.1	0.9;
	149415561	1	-0.013229956	0.00322693936	0	0	0	1	0	13.8	0	1.1	0.9;
	149415562	1	0	0	0	0	0	1	0	13.8	0	1.1	0.9;
	149415563	1	-0.00569055911	0.00122175212	0	0	0	1	0	13.8	0	1.1	0.9;
	150340901	1	0	0	0	0	0	1	0	13.8	0	1.1	0.9;
	150340902	1	1.97907324	0.371443799	0	0	0	1	0	13.8	0	1.1	0.9;
	151073612	1	0	0	0	0	0	1	0	13.8	0	1.1	0.9;
	151073613	1	0	0	0	0	0	1	0	13.8	0	1.1	0.9;
	151073614	1	0	0	0	0	0	1	0	13.8	0	1.1	0.9;
	151073615	1	0	0	0	0	0	1	0	13.8	0	1.1	0.9;
	151462561	1	0	0	0	0	0	1	0	13.8	0	1.1	0.9;
	151462562	1	0	0	0	0	0	1	0	13.8	0	1.1	0.9;
	151462563	1	0	0	0	0	0	1	0	13.8	0	1.1	0.9;
	151462564	1	0	0	0	0	0	1	0	13.8	0	1.1	0.9;
	151462565	1	-0.00142593702	9.64466823e-05	0	0	0	1	0	13.8	0	1.1	0.9;
	2028043	1	0	0	0	0	0	1	0	13.8	0	1.1	0.9;
	2028414	1	0	0	0	0	0	1	0	13.8	0	1.1	0.9;
	2028561	1	0	0	0	0	0	1	0	13.8	0	1.1	0.9;
	2029114	1	0	0	0	0	0	1	0	13.8	0	1.1	0.9;
	2290935	1	0	0	0	0	0	1	0	13.8	0	1.1	0.9;
	2310360	1	0	0	0	0	0	1	0	13.8	0	1.1	0.9;
	2365142	1	0	0	0	0	0	1	0	13.8	0	1.1	0.9;
	2397090	1	0	0	0	0	0	1	0	13.8	0	1.1	0.9;
	24061662	1	0	0	0	0	0	1	0	13.8	0	1.1	0.9;
	2698398	1	0	0	0	0	0	1	0	13.8	0	1.1	0.9;
	3919282	1	0	0	0	0	0	1	0	13.8	0	1.1	0.9;
	3919289	1	0	0	0	0	0	1	0	13.8	0	1.1	0.9;
	4155812	1	0	0	0	0	0	1	0	13.8	0	1.1	0.9;
];

%% generator data
%	bus	Pg	Qg	Qmax	Qmin	Vg	mBase	status	Pmax	Pmin	Pc1	Pc2	Qc1min	Qc1max	Qc2min	Qc2max	ramp_agc	ramp_10	ramp_30	ramp_q	apf
mpc.gen = [
	148371440	5	0	2.5	-2.5	1	1	1	10	5	0	0	0	0	0	0	0	0	0	0	0;
];

%% branch data
%	fbus	tbus	r	x	b	rateA	rateB	rateC	ratio	angle	status	angmin	angmax
mpc.branch = [
	100343735	100343728	4.30967165e-05	4.55578899e-05	-2.62549884e-09	0.0037812	0.005658	0.0062928	1	0	1	-360	360;
	100343735	100343749	3.90881309e-05	4.13203814e-05	-2.62549884e-09	0.0037812	0.005658	0.0062928	1	0	1	-360	360;
	100343742	100343735	0.000188868725	0.000199654666	-2.62549884e-09	0.0037812	0.005658	0.0062928	1	0	1	-360	360;
	100343742	100343763	0.00013291841	5.47924415e-05	-2.62549884e-09	0.001863	0.0028014	0.003105	1	0	1	-360	360;
	100343756	100343742	0.000177430166	0.000187562872	-2.62549884e-09	0.0037812	0.005658	0.0062928	1	0	1	-360	360;
	100343756	100343777	0.000398324533	0.00016419978	-2.62549884e-09	0.001863	0.0028014	0.003105	1	0	1	-360	360;
	2310360	100343756	0.000193737286	0.000204801262	-2.62549884e-09	0.0037812	0.005658	0.0062928	1	0	1	-360	360;
	100343756	100343770	9.44674741e-05	3.89419612e-05	-2.62549884e-09	0.001863	0.0028014	0.003105	1	0	1	-360	360;
	100343728	100343658	2.62549884e-07	2.62549884e-07	-2.62549884e-09	6	8	10	1	0	1	-360	360;
	100343784	100343791	7.43414499e-05	0.000141159812	-2.62549884e-09	0.003519	0.0052716	0.005865	1	0	1	-360	360;
	100343791	100343798	0.000250519635	0.000454997823	-2.62549884e-09	0.0035742	0.0053544	0.0059616	1	0	1	-360	360;
	100343798	100343819	0.00220753138	0.00400935429	-2.62549884e-09	0.0035742	0.0053544	0.0059616	1	0	1	-360	360;
	100343798	100343812	0.000112030973	0.000141622068	-2.62549884e-09	0.0025944	0.0038916	0.0043332	1	0	1	-360	360;
	100343798	100343805	0.00187315836	0.000570275448	-2.62549884e-09	0.0009246	0.00138	0.0015456	1	0	1	-360	360;
	100343812	100343826	0.00049844619	0.000692192852	-2.62549884e-09	0.002622	0.0039468	0.0043884	1	0	1	-360	360;
	100343826	2029114	0.000109821756	4.83020872e-05	-2.62549884e-09	0.0012282	0.0018492	0.0020562	1	0	1	-360	360;
	100343721	100343784	2.62549884e-07	2.62549884e-07	-2.62549884e-09	6	8	10	1	0	1	-360	360;
	100343833	100343840	0.000536386819	0.000163300787	-2.62549884e-09	0.0009246	0.00138	0.0015456	1	0	1	-360	360;
	100343840	100343854	0.000428950479	0.00013059223	-2.62549884e-09	0.0009246	0.00138	0.0015456	1	0	1	-360	360;
	100343840	100343847	0.00138469488	0.000421564727	-2.62549884e-09	0.0009246	0.00138	0.0015456	1	0	1	-360	360;
	100343854	100343861	0.000679460875	0.000759977705	-2.62549884e-09	0.0006624	0.0013662	0.0015318	1	0	1	-360	360;
	100343861	100343868	0.000740954806	0.000225580679	-2.62549884e-09	0.0009246	0.00138	0.0015456	1	0	1	-360	360;
	100343805	100343833	2.62549884e-07	2.62549884e-07	-2.62549884e-09	6	8	10	1	0	1	-360	360;
	100343903	100343910	0.000112607084	0.000204518812	-2.62549884e-09	0.0035742	0.0053544	0.0059616	1	0	1	-360	360;
	100343910	100343917	4.83819327e-05	8.78720507e-05	-2.62549884e-09	0.0035742	0.0053544	0.0059616	1	0	1	-360	360;
	100343917	100343924	2.49462106e-05	4.53077122e-05	-2.62549884e-09	0.0035742	0.0053544	0.0059616	1	0	1	-360	360;
	100343924	100343931	3.50149912e-05	6.6486591e-05	-2.62549884e-09	0.003519	0.0052716	0.005865	1	0	1	-360	360;
	100343931	100343938	3.20364014e-05	6.08308341e-05	-2.62549884e-09	0.003519	0.0052716	0.005865	1	0	1	-360	360;
	100343938	100343945	3.35256805e-05	6.36586825e-05	-2.62549884e-09	0.003519	0.0052716	0.005865	1	0	1	-360	360;
	100343945	100343952	3.20364014e-05	6.08308341e-05	-2.62549884e-09	0.003519	0.0052716	0.005865	1	0	1	-360	360;
	100343952	100343959	8.27089474e-05	0.000157048046	-2.62549884e-09	0.003519	0.0052716	0.005865	1	0	1	-360	360;
	100343889	100343903	2.62549884e-07	2.62549884e-07	-2.62549884e-09	6	8	10	1	0	1	-360	360;
	100343959	100343966	2.62549884e-07	2.62549884e-07	-2.62549884e-09	6	8	10	1	0	1	-360	360;
	100343966	100343973	0.000116970614	0.000222104222	-2.62549884e-09	0.003519	0.0052716	0.005865	1	0	1	-360	360;
	100343973	100343980	4.91588502e-05	9.33430012e-05	-2.62549884e-09	0.003519	0.0052716	0.005865	1	0	1	-360	360;
	100343980	100343987	0.000111016921	0.000210799328	-2.62549884e-09	0.003519	0.0052716	0.005865	1	0	1	-360	360;
	100343987	100343994	1.04276397e-05	1.98000396e-05	-2.62549884e-09	0.003519	0.0052716	0.005865	1	0	1	-360	360;
	100343994	100344001	0.000169106105	0.00032109928	-2.62549884e-09	0.003519	0.0052716	0.005865	1	0	1	-360	360;
	100344001	100344008	1.56591769e-05	2.97337012e-05	-2.62549884e-09	0.003519	0.0052716	0.005865	1	0	1	-360	360;
	100344008	100344015	6.10943079e-05	0.000116006091	-2.62549884e-09	0.003519	0.0052716	0.005865	1	0	1	-360	360;
	100344015	100344022	0.0001035398	0.000196601743	-2.62549884e-09	0.003519	0.0052716	0.005865	1	0	1	-360	360;
	100344022	100344029	3.42946051e-05	6.51187192e-05	-2.62549884e-09	0.003519	0.0052716	0.005865	1	0	1	-360	360;
	100344029	2698398	2.62549884e-07	2.62549884e-07	-2.62549884e-09	6	8	10	1	0	1	-360	360;
	100344036	100344043	0.000164341264	0.000207749242	-2.62549884e-09	0.0025944	0.0038916	0.0043332	1	0	1	-360	360;
	100344043	100344050	5.20178727e-05	6.57575181e-05	-2.62549884e-09	0.0025944	0.0038916	0.0043332	1	0	1	-360	360;
	100344022	100344036	2.62549884e-07	2.62549884e-07	-2.62549884e-09	6	8	10	1	0	1	-360	360;
	100344057	100344064	0.000235274711	0.000297418566	-2.62549884e-09	0.0025944	0.0038916	0.0043332	1	0	1	-360	360;
	100344064	3919289	4.22100598e-05	4.46205978e-05	-2.62549884e-09	0.0037812	0.005658	0.0062928	1	0	1	-360	360;
	3919289	3919282	4.22100598e-05	4.46205978e-05	-2.62549884e-09	0.0037812	0.005658	0.0062928	1	0	1	-360	360;
	100344050	100344057	2.62549884e-07	2.62549884e-07	-2.62549884e-09	6	8	10	1	0	1	-360	360;
	100344071	100344078	0.000131893756	5.43700524e-05	-2.62549884e-09	0.001863	0.0028014	0.003105	1	0	1	-360	360;
	100344015	100344071	2.62549884e-07	2.62549884e-07	-2.62549884e-09	6	8	10	1	0	1	-360	360;
	100344085	100344092	0.00011597978	2.0599815e-05	-2.62549884e-09	0.001449	0.0021666	0.002415	1	0	1	-360	360;
	100344001	100344085	2.62549884e-07	2.62549884e-07	-2.62549884e-09	6	8	10	1	0	1	-360	360;
	100344099	100344106	0.000113298266	2.01235363e-05	-2.62549884e-09	0.001449	0.0021666	0.002415	1	0	1	-360	360;
	100343994	100344099	2.62549884e-07	2.62549884e-07	-2.62549884e-09	6	8	10	1	0	1	-360	360;
	100344113	100344120	4.85099703e-05	1.74635893e-05	-2.62549884e-09	0.0024426	0.003657	0.004071	1	0	1	-360	360;
	100344120	100344127	0.000287390112	0.000118469713	-2.62549884e-09	0.001863	0.0028014	0.003105	1	0	1	-360	360;
	100343973	100344113	2.62549884e-07	2.62549884e-07	-2.62549884e-09	6	8	10	1	0	1	-360	360;
	100344134	100344141	4.91138074e-05	2.16013611e-05	-2.62549884e-09	0.0012282	0.0018492	0.0020562	1	0	1	-360	360;
	100343952	100344134	2.62549884e-07	2.62549884e-07	-2.62549884e-09	6	8	10	1	0	1	-360	360;
	100344148	100344155	0.00011581904	2.05712651e-05	-2.62549884e-09	0.001449	0.0021666	0.002415	1	0	1	-360	360;
	100343938	100344148	2.62549884e-07	2.62549884e-07	-2.62549884e-09	6	8	10	1	0	1	-360	360;
	100344162	100344169	7.63635151e-05	1.35633494e-05	-2.62549884e-09	0.001449	0.0021666	0.002415	1	0	1	-360	360;
	100343917	100344162	2.62549884e-07	2.62549884e-07	-2.62549884e-09	6	8	10	1	0	1	-360	360;
	100344176	100344183	0.000110045013	1.95457078e-05	-2.62549884e-09	0.001449	0.0021666	0.002415	1	0	1	-360	360;
	100343910	100344176	2.62549884e-07	2.62549884e-07	-2.62549884e-09	6	8	10	1	0	1	-360	360;
	100356790	100356797	2.80264561e-05	3.54291727e-05	-2.62549884e-09	0.0025944	0.0038916	0.0043332	1	0	1	-360	360;
	100356797	100356804	4.97096901e-05	6.28396679e-05	-2.62549884e-09	0.0025944	0.0038916	0.0043332	1	0	1	-360	360;
	100356804	100356825	0.000164994883	0.000208575504	-2.62549884e-09	0.0025944	0.0038916	0.0043332	1	0	1	-360	360;
	100356804	100356811	6.24232362e-05	7.89112832e-05	-2.62549884e-09	0.0025944	0.0038916	0.0043332	1	0	1	-360	360;
	100356783	100356790	2.62549884e-07	2.62549884e-07	-2.62549884e-09	6	8	10	1	0	1	-360	360;
	100356811	100356818	2.62549884e-07	2.62549884e-07	-2.62549884e-09	6	8	10	1	0	1	-360	360;
	100356825	2365142	2.62549884e-07	2.62549884e-07	-2.62549884e-09	6	8	10	1	0	1	-360	360;
	100356818	100356832	0.000156630112	0.000198001319	-2.62549884e-09	0.0025944	0.0038916	0.0043332	1	0	1	-360	360;
	100356832	100356839	0.000193396668	0.000244479143	-2.62549884e-09	0.0025944	0.0038916	0.0043332	1	0	1	-360	360;
	100356839	100356853	6.52881842e-05	8.25329589e-05	-2.62549884e-09	0.0025944	0.0038916	0.0043332	1	0	1	-360	360;
	100356839	100356846	0.000512601695	0.000225453796	-2.62549884e-09	0.0012282	0.0018492	0.0020562	1	0	1	-360	360;
	100356853	100356860	6.43416949e-05	8.13364704e-05	-2.62549884e-09	0.0025944	0.0038916	0.0043332	1	0	1	-360	360;
	100356860	100356881	2.91987881e-05	3.69111564e-05	-2.62549884e-09	0.0025944	0.0038916	0.0043332	1	0	1	-360	360;
	100356860	100356867	0.000113702706	0.000143735362	-2.62549884e-09	0.0025944	0.0038916	0.0043332	1	0	1	-360	360;
	100356867	100356874	2.62549884e-07	2.62549884e-07	-2.62549884e-09	6	8	10	1	0	1	-360	360;
	100356881	2290935	2.62549884e-07	2.62549884e-07	-2.62549884e-09	6	8	10	1	0	1	-360	360;
	100357238	100357245	0.000126078514	0.000175085392	-2.62549884e-09	0.002622	0.0039468	0.0043884	1	0	1	-360	360;
	100357245	100357259	0.000194089782	8.00088796e-05	-2.62549884e-09	0.001863	0.0028014	0.003105	1	0	1	-360	360;
	100357245	100357252	7.18304978e-05	9.97511027e-05	-2.62549884e-09	0.002622	0.0039468	0.0043884	1	0	1	-360	360;
	100357252	100357266	7.21829461e-05	0.000100240548	-2.62549884e-09	0.002622	0.0039468	0.0043884	1	0	1	-360	360;
	100357266	100357287	0.000160883407	6.63203443e-05	-2.62549884e-09	0.001863	0.0028014	0.003105	1	0	1	-360	360;
	100357266	100357280	0.00024406599	0.000338934748	-2.62549884e-09	0.002622	0.0039468	0.0043884	1	0	1	-360	360;
	100357266	100357273	0.000127732515	5.26546802e-05	-2.62549884e-09	0.001863	0.0028014	0.003105	1	0	1	-360	360;
	100357280	100357315	0.000155853043	0.000216433316	-2.62549884e-09	0.002622	0.0039468	0.0043884	1	0	1	-360	360;
	100357315	100357322	0.000119549413	0.00016601842	-2.62549884e-09	0.002622	0.0039468	0.0043884	1	0	1	-360	360;
	100357322	100357336	0.000143655745	5.92186515e-05	-2.62549884e-09	0.001863	0.0028014	0.003105	1	0	1	-360	360;
	100357322	100357329	5.95147143e-05	8.26481586e-05	-2.62549884e-09	0.002622	0.0039468	0.0043884	1	0	1	-360	360;
	100357329	100357343	0.000106555977	0.00014797442	-2.62549884e-09	0.002622	0.0039468	0.0043884	1	0	1	-360	360;
	100357343	100357357	0.000207770895	8.56485919e-05	-2.62549884e-09	0.001863	0.0028014	0.003105	1	0	1	-360	360;
	100357343	100357350	0.000130297779	5.37121492e-05	-2.62549884e-09	0.001863	0.0028014	0.003105	1	0	1	-360	360;
	100357343	2028414	1.91211759e-05	2.6553601e-05	-2.62549884e-09	0.002622	0.0039468	0.0043884	1	0	1	-360	360;
	100357287	100357301	6.63456973e-05	2.734943e-05	-2.62549884e-09	0.001863	0.0028014	0.003105	1	0	1	-360	360;
	100357287	100357294	0.000148696236	6.1296474e-05	-2.62549884e-09	0.001863	0.0028014	0.003105	1	0	1	-360	360;
	100357301	100357308	0.000546411397	0.000225245055	-2.62549884e-09	0.001863	0.0028014	0.003105	1	0	1	-360	360;
	100357224	100357238	2.62549884e-07	2.62549884e-07	-2.62549884e-09	6	8	10	1	0	1	-360	360;
	100357364	100357371	3.34322006e-05	4.22627536e-05	-2.62549884e-09	0.0025944	0.0038916	0.0043332	1	0	1	-360	360;
	100357371	100357385	6.14756769e-05	7.7713442e-05	-2.62549884e-09	0.0025944	0.0038916	0.0043332	1	0	1	-360	360;
	100357371	100357378	0.000135056046	5.5673631e-05	-2.62549884e-09	0.001863	0.0028014	0.003105	1	0	1	-360	360;
	100357385	100357392	9.94219382e-05	0.000125682569	-2.62549884e-09	0.0025944	0.0038916	0.0043332	1	0	1	-360	360;
	100357217	100357364	2.62549884e-07	2.62549884e-07	-2.62549884e-09	6	8	10	1	0	1	-360	360;
	100357686	100357693	0.000443210939	0.000194934176	-2.62549884e-09	0.0012282	0.0018492	0.0020562	1	0	1	-360	360;
	100357693	100357707	0.000181833734	7.49566164e-05	-2.62549884e-09	0.001863	0.0028014	0.003105	1	0	1	-360	360;
	100357693	100357700	0.00053753861	0.000236421614	-2.62549884e-09	0.0012282	0.0018492	0.0020562	1	0	1	-360	360;
	100357700	100357721	0.000764884896	0.000336413643	-2.62549884e-09	0.0012282	0.0018492	0.0020562	1	0	1	-360	360;
	100357700	100357714	0.000115437641	4.75864118e-05	-2.62549884e-09	0.001863	0.0028014	0.003105	1	0	1	-360	360;
	100357721	100357728	0.000278118337	0.000114647645	-2.62549884e-09	0.001863	0.0028014	0.003105	1	0	1	-360	360;
	100357728	100357735	0.000303420384	0.000125077811	-2.62549884e-09	0.001863	0.0028014	0.003105	1	0	1	-360	360;
	100357735	100357749	0.000244819673	0.000100921066	-2.62549884e-09	0.001863	0.0028014	0.003105	1	0	1	-360	360;
	100357735	100357742	0.000538609066	0.00022202873	-2.62549884e-09	0.001863	0.0028014	0.003105	1	0	1	-360	360;
	100357476	100357686	2.62549884e-07	2.62549884e-07	-2.62549884e-09	6	8	10	1	0	1	-360	360;
	100357805	100357812	0.00010547286	1.7786317e-05	-2.62549884e-09	0.0009936	0.0014766	0.001656	1	0	1	-360	360;
	100357084	100357805	2.62549884e-07	2.62549884e-07	-2.62549884e-09	6	8	10	1	0	1	-360	360;
	100357833	100357840	0.000184564699	0.000195104846	-2.62549884e-09	0.0037812	0.005658	0.0062928	1	0	1	-360	360;
	100357840	100357847	4.30967165e-05	4.55578899e-05	-2.62549884e-09	0.0037812	0.005658	0.0062928	1	0	1	-360	360;
	100357847	100357854	0.00017718359	0.000187302215	-2.62549884e-09	0.0037812	0.005658	0.0062928	1	0	1	-360	360;
	100357854	100357861	4.22299606e-05	4.46416352e-05	-2.62549884e-09	0.0037812	0.005658	0.0062928	1	0	1	-360	360;
	100357861	100357868	8.52922818e-05	9.01631654e-05	-2.62549884e-09	0.0037812	0.005658	0.0062928	1	0	1	-360	360;
	100356776	100357833	2.62549884e-07	2.62549884e-07	-2.62549884e-09	6	8	10	1	0	1	-360	360;
	100357875	100357882	0.000348948124	0.000368875902	-2.62549884e-09	0.0037812	0.005658	0.0062928	1	0	1	-360	360;
	100357882	100357896	0.000162647683	0.00017193619	-2.62549884e-09	0.0037812	0.005658	0.0062928	1	0	1	-360	360;
	100357882	100357889	1.27687646e-05	1.3497965e-05	-2.62549884e-09	0.0037812	0.005658	0.0062928	1	0	1	-360	360;
	100357896	100357903	0.000627620591	0.000663462836	-2.62549884e-09	0.0037812	0.005658	0.0062928	1	0	1	-360	360;
	100357903	100357910	0.000391045001	0.000413376854	-2.62549884e-09	0.0037812	0.005658	0.0062928	1	0	1	-360	360;
	100357868	100357875	2.62549884e-07	2.62549884e-07	-2.62549884e-09	6	8	10	1	0	1	-360	360;
	100357889	24061662	2.62549884e-07	2.62549884e-07	-2.62549884e-09	6	8	10	1	0	1	-360	360;
	100357910	2310360	2.62549884e-07	2.62549884e-07	-2.62549884e-09	6	8	10	1	0	1	-360	360;
	100357917	100357924	0.000449564596	0.000185322273	-2.62549884e-09	0.001863	0.0028014	0.003105	1	0	1	-360	360;
	100357924	100357931	0.000386835723	0.000159463793	-2.62549884e-09	0.001863	0.0028014	0.003105	1	0	1	-360	360;
	100357931	100357945	0.000147514642	2.62008975e-05	-2.62549884e-09	0.001449	0.0021666	0.002415	1	0	1	-360	360;
	100357931	100357938	0.000594593392	0.000665053337	-2.62549884e-09	0.0006624	0.0013662	0.0015318	1	0	1	-360	360;
	100357938	100357952	0.000276320233	0.00011390642	-2.62549884e-09	0.001863	0.0028014	0.003105	1	0	1	-360	360;
	100357952	100357959	0.000308755487	0.000127277079	-2.62549884e-09	0.001863	0.0028014	0.003105	1	0	1	-360	360;
	100357959	100357966	0.000947560242	0.00105984713	-2.62549884e-09	0.0006624	0.0013662	0.0015318	1	0	1	-360	360;
	100357966	100357973	0.000326697743	0.00036541177	-2.62549884e-09	0.0006624	0.0013662	0.0015318	1	0	1	-360	360;
	100357854	100357917	2.62549884e-07	2.62549884e-07	-2.62549884e-09	6	8	10	1	0	1	-360	360;
	100357980	100357987	0.000995820466	0.00111382624	-2.62549884e-09	0.0006624	0.0013662	0.0015318	1	0	1	-360	360;
	100357847	100357980	2.62549884e-07	2.62549884e-07	-2.62549884e-09	6	8	10	1	0	1	-360	360;
	100357994	100358001	6.60039908e-05	2.72085696e-05	-2.62549884e-09	0.001863	0.0028014	0.003105	1	0	1	-360	360;
	100357840	100357994	2.62549884e-07	2.62549884e-07	-2.62549884e-09	6	8	10	1	0	1	-360	360;
	108484042	108484049	3.53578847e-05	3.73771078e-05	-2.62549884e-09	0.0037812	0.005658	0.0062928	1	0	1	-360	360;
	108484049	100357476	5.12947585e-05	5.42241068e-05	-2.62549884e-09	0.0037812	0.005658	0.0062928	1	0	1	-360	360;
	108484049	100357469	0.000122208655	0.000129187764	-2.62549884e-09	0.0037812	0.005658	0.0062928	1	0	1	-360	360;
	108484049	100357462	4.30967165e-05	4.55578899e-05	-2.62549884e-09	0.0037812	0.005658	0.0062928	1	0	1	-360	360;
	100357392	108484042	2.62549884e-07	2.62549884e-07	-2.62549884e-09	6	8	10	1	0	1	-360	360;
	108490580	108490587	0.000229602375	9.46480984e-05	-2.62549884e-09	0.001863	0.0028014	0.003105	1	0	1	-360	360;
	108490587	108490601	0.000152286815	6.27766042e-05	-2.62549884e-09	0.001863	0.0028014	0.003105	1	0	1	-360	360;
	108490587	108490594	0.000246968802	0.000101806993	-2.62549884e-09	0.001863	0.0028014	0.003105	1	0	1	-360	360;
	108490587	100357553	0.0001522648	6.27675293e-05	-2.62549884e-09	0.001863	0.0028014	0.003105	1	0	1	-360	360;
	108490594	100357574	0.000194385092	8.0130614e-05	-2.62549884e-09	0.001863	0.0028014	0.003105	1	0	1	-360	360;
	100357518	108490580	2.62549884e-07	2.62549884e-07	-2.62549884e-09	6	8	10	1	0	1	-360	360;
	109523570	109523577	5.6531331e-05	2.33036917e-05	-2.62549884e-09	0.001863	0.0028014	0.003105	1	0	1	-360	360;
	109523563	109523570	2.62549884e-07	2.62549884e-07	-2.62549884e-09	6	8	10	1	0	1	-360	360;
	109524977	100357084	6.63456973e-05	2.734943e-05	-2.62549884e-09	0.001863	0.0028014	0.003105	1	0	1	-360	360;
	100357084	109524984	6.8799648e-05	2.83610126e-05	-2.62549884e-09	0.001863	0.0028014	0.003105	1	0	1	-360	360;
	109524984	109523563	7.73600162e-05	3.188982e-05	-2.62549884e-09	0.001863	0.0028014	0.003105	1	0	1	-360	360;
	109518005	109524977	2.62549884e-07	2.62549884e-07	-2.62549884e-09	6	8	10	1	0	1	-360	360;
	100357056	109528519	6.89350044e-06	8.71430254e-06	-2.62549884e-09	0.0025944	0.0038916	0.0043332	1	0	1	-360	360;
	109528519	109528533	0.000115336839	0.000145801123	-2.62549884e-09	0.0025944	0.0038916	0.0043332	1	0	1	-360	360;
	109528519	100357763	0.00011475986	0.000145071745	-2.62549884e-09	0.0025944	0.0038916	0.0043332	1	0	1	-360	360;
	109528519	109528526	5.41451706e-05	6.84467059e-05	-2.62549884e-09	0.0025944	0.0038916	0.0043332	1	0	1	-360	360;
	109528526	109528568	2.32871213e-05	2.94380223e-05	-2.62549884e-09	0.0025944	0.0038916	0.0043332	1	0	1	-360	360;
	109528526	109528561	0.000228960622	9.43835511e-05	-2.62549884e-09	0.001863	0.0028014	0.003105	1	0	1	-360	360;
	109528568	109528575	0.000111569774	0.000141039052	-2.62549884e-09	0.0025944	0.0038916	0.0043332	1	0	1	-360	360;
	109528575	109528582	7.14243561e-05	9.02898973e-05	-2.62549884e-09	0.0025944	0.0038916	0.0043332	1	0	1	-360	360;
	109528582	109528589	4.38858491e-05	5.54775574e-05	-2.62549884e-09	0.0025944	0.0038916	0.0043332	1	0	1	-360	360;
	109528533	109528547	0.00013851415	5.7099152e-05	-2.62549884e-09	0.001863	0.0028014	0.003105	1	0	1	-360	360;
	109528533	109528540	2.70106658e-05	3.41450785e-05	-2.62549884e-09	0.0025944	0.0038916	0.0043332	1	0	1	-360	360;
	109528540	109528554	8.22705966e-05	3.39140896e-05	-2.62549884e-09	0.001863	0.0028014	0.003105	1	0	1	-360	360;
	109528589	100357175	2.62549884e-07	2.62549884e-07	-2.62549884e-09	6	8	10	1	0	1	-360	360;
	113510350	113510357	0.000467167395	0.000205470765	-2.62549884e-09	0.0012282	0.0018492	0.0020562	1	0	1	-360	360;
	113510357	113510371	0.000489804726	0.000547847102	-2.62549884e-09	0.0006624	0.0013662	0.0015318	1	0	1	-360	360;
	113510357	113510364	0.000274873885	0.000120895739	-2.62549884e-09	0.0012282	0.0018492	0.0020562	1	0	1	-360	360;
	113510371	113510378	0.00103494749	0.00115758986	-2.62549884e-09	0.0006624	0.0013662	0.0015318	1	0	1	-360	360;
	100357553	113510350	2.62549884e-07	2.62549884e-07	-2.62549884e-09	6	8	10	1	0	1	-360	360;
	117730251	117730258	6.52181216e-05	6.89426073e-05	-2.62549884e-09	0.0037812	0.005658	0.0062928	1	0	1	-360	360;
	117730258	109518005	9.63803139e-05	0.000101884414	-2.62549884e-09	0.0037812	0.005658	0.0062928	1	0	1	-360	360;
	117730258	117730265	4.02115233e-05	4.25079286e-05	-2.62549884e-09	0.0037812	0.005658	0.0062928	1	0	1	-360	360;
	117730265	117730279	0.000212749104	0.00022489881	-2.62549884e-09	0.0037812	0.005658	0.0062928	1	0	1	-360	360;
	109518005	117730272	0.00014692098	0.000155311364	-2.62549884e-09	0.0037812	0.005658	0.0062928	1	0	1	-360	360;
	117730272	106889603	2.47690588e-05	2.61835737e-05	-2.62549884e-09	0.0037812	0.005658	0.0062928	1	0	1	-360	360;
	100357763	117730251	2.62549884e-07	2.62549884e-07	-2.62549884e-09	6	8	10	1	0	1	-360	360;
	100343658	120069896	3.37729756e-05	6.41282472e-05	-2.62549884e-09	0.003519	0.0052716	0.005865	1	0	1	-360	360;
	120069896	120069917	0.000269280683	0.000511311128	-2.62549884e-09	0.003519	0.0052716	0.005865	1	0	1	-360	360;
	120069896	120069910	9.34335475e-05	0.000177411955	-2.62549884e-09	0.003519	0.0052716	0.005865	1	0	1	-360	360;
	120069896	120069903	0.000136960809	0.000260061675	-2.62549884e-09	0.003519	0.0052716	0.005865	1	0	1	-360	360;
	120069903	100343595	0.000105048313	0.000199466113	-2.62549884e-09	0.003519	0.0052716	0.005865	1	0	1	-360	360;
	120069903	120069980	0.000145402557	6.39513268e-05	-2.62549884e-09	0.0012282	0.0018492	0.0020562	1	0	1	-360	360;
	120069917	120069931	0.000128360523	5.29135617e-05	-2.62549884e-09	0.001863	0.0028014	0.003105	1	0	1	-360	360;
	120069917	120069924	0.000109408487	0.000207745228	-2.62549884e-09	0.003519	0.0052716	0.005865	1	0	1	-360	360;
	120069924	120069938	0.000311860919	0.000592162633	-2.62549884e-09	0.003519	0.0052716	0.005865	1	0	1	-360	360;
	120069938	120069945	3.73605386e-05	7.09403249e-05	-2.62549884e-09	0.003519	0.0052716	0.005865	1	0	1	-360	360;
	120069945	120069959	0.000129704975	0.000246284272	-2.62549884e-09	0.003519	0.0052716	0.005865	1	0	1	-360	360;
	120069945	120069952	0.000158866742	0.000301656739	-2.62549884e-09	0.003519	0.0052716	0.005865	1	0	1	-360	360;
	120069952	120069973	0.000624074544	0.000274482071	-2.62549884e-09	0.0012282	0.0018492	0.0020562	1	0	1	-360	360;
	120069952	120069966	0.000147348389	0.000279785651	-2.62549884e-09	0.003519	0.0052716	0.005865	1	0	1	-360	360;
	120069966	100343721	0.00013270006	0.00025197135	-2.62549884e-09	0.003519	0.0052716	0.005865	1	0	1	-360	360;
	120069959	100343700	2.62549884e-07	2.62549884e-07	-2.62549884e-09	6	8	10	1	0	1	-360	360;
	100356874	134959568	0.000113701319	0.000143733608	-2.62549884e-09	0.0025944	0.0038916	0.0043332	1	0	1	-360	360;
	134959568	134959582	0.000148276075	0.000187440704	-2.62549884e-09	0.0025944	0.0038916	0.0043332	1	0	1	-360	360;
	134959568	134959575	0.000151868272	6.26040698e-05	-2.62549884e-09	0.001863	0.0028014	0.003105	1	0	1	-360	360;
	134959582	134959589	7.58772032e-05	8.02104093e-05	-2.62549884e-09	0.0037812	0.005658	0.0062928	1	0	1	-360	360;
	134959589	134959603	2.74717478e-05	2.90406082e-05	-2.62549884e-09	0.0037812	0.005658	0.0062928	1	0	1	-360	360;
	134959589	134959596	6.84778395e-05	7.23884816e-05	-2.62549884e-09	0.0037812	0.005658	0.0062928	1	0	1	-360	360;
	134959596	134959610	8.63278382e-05	9.12578606e-05	-2.62549884e-09	0.0037812	0.005658	0.0062928	1	0	1	-360	360;
	134959610	134959631	2.85697458e-05	3.61159632e-05	-2.62549884e-09	0.0025944	0.0038916	0.0043332	1	0	1	-360	360;
	134959610	134959624	3.01409304e-05	3.81021498e-05	-2.62549884e-09	0.0025944	0.0038916	0.0043332	1	0	1	-360	360;
	134959610	134959617	8.7723264e-05	3.61618216e-05	-2.62549884e-09	0.001863	0.0028014	0.003105	1	0	1	-360	360;
	134959624	134959652	0.000125450252	5.17138718e-05	-2.62549884e-09	0.001863	0.0028014	0.003105	1	0	1	-360	360;
	134959631	134959645	5.11187897e-05	3.6573433e-05	-2.62549884e-09	0.0028428	0.0042642	0.0047472	1	0	1	-360	360;
	134959631	100356965	1.27329571e-05	1.60961534e-05	-2.62549884e-09	0.0025944	0.0038916	0.0043332	1	0	1	-360	360;
	134959631	134959638	6.60675252e-05	4.72686506e-05	-2.62549884e-09	0.0028428	0.0042642	0.0047472	1	0	1	-360	360;
	134959638	2028561	2.62549884e-07	2.62549884e-07	-2.62549884e-09	6	8	10	1	0	1	-360	360;
	139030334	139030341	6.77075159e-05	8.55913164e-05	-2.62549884e-09	0.0025944	0.0038916	0.0043332	1	0	1	-360	360;
	139030341	139030348	6.18609536e-05	7.82004831e-05	-2.62549884e-09	0.0025944	0.0038916	0.0043332	1	0	1	-360	360;
	139030348	139030124	5.87078841e-05	7.42145833e-05	-2.62549884e-09	0.0025944	0.0038916	0.0043332	1	0	1	-360	360;
	139030124	139030355	7.08323133e-05	8.95414764e-05	-2.62549884e-09	0.0025944	0.0038916	0.0043332	1	0	1	-360	360;
	139030355	139030369	0.000123180724	5.07783132e-05	-2.62549884e-09	0.001863	0.0028014	0.003105	1	0	1	-360	360;
	139030355	139030362	8.20190809e-05	0.00010368304	-2.62549884e-09	0.0025944	0.0038916	0.0043332	1	0	1	-360	360;
	139030362	139030390	0.000147559491	0.000186534846	-2.62549884e-09	0.0025944	0.0038916	0.0043332	1	0	1	-360	360;
	139030369	139030383	8.51518261e-05	3.51018077e-05	-2.62549884e-09	0.001863	0.0028014	0.003105	1	0	1	-360	360;
	139030369	139030376	9.70646923e-05	4.00126024e-05	-2.62549884e-09	0.001863	0.0028014	0.003105	1	0	1	-360	360;
	100356965	139030334	2.62549884e-07	2.62549884e-07	-2.62549884e-09	6	8	10	1	0	1	-360	360;
	139030390	100357056	2.62549884e-07	2.62549884e-07	-2.62549884e-09	6	8	10	1	0	1	-360	360;
	139030999	139031006	4.3163201e-05	7.66645663e-06	-2.62549884e-09	0.001449	0.0021666	0.002415	1	0	1	-360	360;
	139030124	139030999	2.62549884e-07	2.62549884e-07	-2.62549884e-09	6	8	10	1	0	1	-360	360;
	148371236	148371237	0.000130255567	0.00013769422	-2.62549884e-09	0.0037812	0.005658	0.0062928	1	0	1	-360	360;
	148371237	148371238	8.44458142e-05	4.24230156e-05	-2.62549884e-09	0.0031878	0.0047886	0.0053268	1	0	1	-360	360;
	148371238	148371239	9.22901024e-05	9.75606186e-05	-2.62549884e-09	0.0037812	0.005658	0.0062928	1	0	1	-360	360;
	148371239	148371240	0.000188275874	0.000199027959	-2.62549884e-09	0.0037812	0.005658	0.0062928	1	0	1	-360	360;
	148371240	148371241	0.000134520063	0.000142202254	-2.62549884e-09	0.0037812	0.005658	0.0062928	1	0	1	-360	360;
	148371241	148371242	5.34759688e-05	6.76007458e-05	-2.62549884e-09	0.0025944	0.0038916	0.0043332	1	0	1	-360	360;
	148371241	100356776	0.000101702886	0.000107510949	-2.62549884e-09	0.0037812	0.005658	0.0062928	1	0	1	-360	360;
	148371242	100356783	0.000228456999	0.000288800069	-2.62549884e-09	0.0025944	0.0038916	0.0043332	1	0	1	-360	360;
	148364035	148371236	2.62549884e-07	2.62549884e-07	-2.62549884e-09	6	8	10	1	0	1	-360	360;
	148371280	148364035	5.29652618e-05	5.59900095e-05	-2.62549884e-09	0.0037812	0.005658	0.0062928	1	0	1	-360	360;
	100356713	148371280	2.62549884e-07	2.62549884e-07	-2.62549884e-09	6	8	10	1	0	1	-360	360;
	148371440	100356713	7.64180003e-05	8.07820903e-05	-2.62549884e-09	0.0037812	0.005658	0.0062928	1	0	1	-360	360;
	148617979	148617980	0.000153595519	6.33160861e-05	-2.62549884e-09	0.001863	0.0028014	0.003105	1	0	1	-360	360;
	148617980	148617981	0.000394156226	0.000162481495	-2.62549884e-09	0.001863	0.0028014	0.003105	1	0	1	-360	360;
	148617981	148617982	0.000725815757	0.00029920022	-2.62549884e-09	0.001863	0.0028014	0.003105	1	0	1	-360	360;
	148617982	148617983	0.00025546965	0.000105311265	-2.62549884e-09	0.001863	0.0028014	0.003105	1	0	1	-360	360;
	148617983	148617985	0.000261549549	0.000107817558	-2.62549884e-09	0.001863	0.0028014	0.003105	1	0	1	-360	360;
	148617983	148617984	0.000206326689	8.50532524e-05	-2.62549884e-09	0.001863	0.0028014	0.003105	1	0	1	-360	360;
	100357378	148617979	2.62549884e-07	2.62549884e-07	-2.62549884e-09	6	8	10	1	0	1	-360	360;
	100357175	149142614	1.42848812e-05	1.80579921e-05	-2.62549884e-09	0.0025944	0.0038916	0.0043332	1	0	1	-360	360;
	149142614	149142617	0.000104780969	0.000132457098	-2.62549884e-09	0.0025944	0.0038916	0.0043332	1	0	1	-360	360;
	149142614	149142616	8.39127116e-05	0.000106076842	-2.62549884e-09	0.0025944	0.0038916	0.0043332	1	0	1	-360	360;
	149142614	149142615	6.08744386e-05	7.69533967e-05	-2.62549884e-09	0.0025944	0.0038916	0.0043332	1	0	1	-360	360;
	149142615	149142619	0.00033771598	0.000139215351	-2.62549884e-09	0.001863	0.0028014	0.003105	1	0	1	-360	360;
	149142615	100357224	8.25936522e-05	0.000104409375	-2.62549884e-09	0.0025944	0.0038916	0.0043332	1	0	1	-360	360;
	149142616	100357217	5.87078841e-05	7.42145833e-05	-2.62549884e-09	0.0025944	0.0038916	0.0043332	1	0	1	-360	360;
	149142617	149142618	6.55681802e-05	8.28869112e-05	-2.62549884e-09	0.0025944	0.0038916	0.0043332	1	0	1	-360	360;
	149142618	2397090	2.62549884e-07	2.62549884e-07	-2.62549884e-09	6	8	10	1	0	1	-360	360;
	149414083	149414084	4.79869675e-05	5.0727414e-05	-2.62549884e-09	0.0037812	0.005658	0.0062928	1	0	1	-360	360;
	149414084	149414087	4.8803161e-05	5.15902188e-05	-2.62549884e-09	0.0037812	0.005658	0.0062928	1	0	1	-360	360;
	149414084	149414086	1.72970926e-05	1.82848974e-05	-2.62549884e-09	0.0037812	0.005658	0.0062928	1	0	1	-360	360;
	149414084	149414085	0.000390709963	0.000161060856	-2.62549884e-09	0.001863	0.0028014	0.003105	1	0	1	-360	360;
	149414086	149414089	4.1426278e-05	4.37920558e-05	-2.62549884e-09	0.0037812	0.005658	0.0062928	1	0	1	-360	360;
	149414087	149414088	0.000650430502	0.000286074017	-2.62549884e-09	0.0012282	0.0018492	0.0020562	1	0	1	-360	360;
	149414082	149414083	2.62549884e-07	2.62549884e-07	-2.62549884e-09	6	8	10	1	0	1	-360	360;
	149414089	2028043	2.62549884e-07	2.62549884e-07	-2.62549884e-09	6	8	10	1	0	1	-360	360;
	149415559	149415560	9.34926574e-05	9.88318492e-05	-2.62549884e-09	0.0037812	0.005658	0.0062928	1	0	1	-360	360;
	149415560	149415561	9.34934223e-05	9.88326578e-05	-2.62549884e-09	0.0037812	0.005658	0.0062928	1	0	1	-360	360;
	149415561	149415562	5.60984441e-05	5.93021219e-05	-2.62549884e-09	0.0037812	0.005658	0.0062928	1	0	1	-360	360;
	149415562	149415563	0.000188009281	0.000198746141	-2.62549884e-09	0.0037812	0.005658	0.0062928	1	0	1	-360	360;
	149415562	100357518	2.3372474e-05	2.47072325e-05	-2.62549884e-09	0.0037812	0.005658	0.0062928	1	0	1	-360	360;
	149415563	149414082	0.000161170794	0.000170374959	-2.62549884e-09	0.0037812	0.005658	0.0062928	1	0	1	-360	360;
	100357462	149415559	2.62549884e-07	2.62549884e-07	-2.62549884e-09	6	8	10	1	0	1	-360	360;
	150340901	150340902	3.05975638e-05	1.74318954e-05	-2.62549884e-09	0.0012282	0.0018492	0.0020562	1	0	1	-360	360;
	100357574	150340901	2.62549884e-07	2.62549884e-07	-2.62549884e-09	6	8	10	1	0	1	-360	360;
	151073612	151073613	2.25416856e-05	4.09405749e-05	-2.62549884e-09	0.0035742	0.0053544	0.0059616	1	0	1	-360	360;
	151073613	4155812	0.000253510396	0.000267987904	-2.62549884e-09	0.0037812	0.005658	0.0062928	1	0	1	-360	360;
	151073613	100343896	0.00015594965	6.85901761e-05	-2.62549884e-09	0.0012282	0.0018492	0.0020562	1	0	1	-360	360;
	151073613	151073614	0.000259411133	0.000471146707	-2.62549884e-09	0.0035742	0.0053544	0.0059616	1	0	1	-360	360;
	151073614	151073615	0.000113697087	0.000120190116	-2.62549884e-09	0.0037812	0.005658	0.0062928	1	0	1	-360	360;
	151073615	100343889	3.70320525e-05	6.72582142e-05	-2.62549884e-09	0.0035742	0.0053544	0.0059616	1	0	1	-360	360;
	100343819	151073612	2.62549884e-07	2.62549884e-07	-2.62549884e-09	6	8	10	1	0	1	-360	360;
	151462561	151462562	0.000210135158	9.24221857e-05	-2.62549884e-09	0.0012282	0.0018492	0.0020562	1	0	1	-360	360;
	151462562	151462563	0.000489695698	0.000215379222	-2.62549884e-09	0.0012282	0.0018492	0.0020562	1	0	1	-360	360;
	151462563	151462564	0.000549115332	0.000241513318	-2.62549884e-09	0.0012282	0.0018492	0.0020562	1	0	1	-360	360;
	151462564	151462565	0.000267685339	0.000117734055	-2.62549884e-09	0.0012282	0.0018492	0.0020562	1	0	1	-360	360;
	100343896	151462561	2.62549884e-07	2.62549884e-07	-2.62549884e-09	6	8	10	1	0	1	-360	360;
];

%%-----  OPF Data  -----%%
%% generator cost data
%	1	startup	shutdown	n	x1	y1	...	xn	yn
%	2	startup	shutdown	n	c(n-1)	...	c0
mpc.gencost = [
	2	0	0	3	0.25	20	0;
];
